54

C    5.755313   -0.739880    1.131115
C    6.051280   -1.750827    0.028144
C    4.751379   -2.414026   -0.429510
C    3.583907   -1.467234   -0.610826
C    3.582341   -0.201453   -0.083544
C    4.800953    0.388938    0.675906
C    2.479065    0.729789   -0.257351
C    2.464432   -2.056378   -1.437421
C    4.335371    1.137887    1.947697
C    5.557782    1.383720   -0.239187
C    1.133175    0.465185   -0.253133
C    0.076131    1.419058   -0.424599
C   -1.234646    0.952085   -0.289287
C    0.360577    2.869181   -0.739678
C   -2.379339    1.759962   -0.436292
C   -3.743659    1.478522   -0.329482
C   -4.435453    0.286279   -0.007613
C   -5.843653    0.350538   -0.003756
C   -6.712249   -0.696934    0.279811
C   -3.700902   -0.989141    0.317277
N   -8.042410   -0.597888    0.266017
C   -8.975704   -1.682147    0.558963
H   -8.449218    0.302722    0.031782
H    6.682570   -0.285569    1.502633
H    5.302718   -1.266018    1.984333
H    6.753665   -2.513905    0.383036
H    6.533987   -1.257061   -0.824615
H    4.442721   -3.175959    0.307514
H    4.910635   -2.968792   -1.363151
H    2.779396    1.772112   -0.329140
H    2.877539   -2.697275   -2.224441
H    1.830757   -1.304183   -1.911995
H    1.819371   -2.702371   -0.822894
H    3.729794    0.489251    2.591792
H    3.745415    2.033303    1.720419
H    5.208053    1.464360    2.525825
H    5.951636    0.895023   -1.136050
H    6.399803    1.828573    0.304856
H    4.915903    2.208820   -0.570436
H    0.810418   -0.553139   -0.054579
H   -1.345440   -0.100854   -0.060081
H    1.423923    3.071733   -0.864734
H   -0.010859    3.524452    0.056987
H   -0.133702    3.170524   -1.670261
H   -2.182021    2.800507   -0.686227
H   -4.387816    2.332927   -0.527877
H   -6.293898    1.311506   -0.249912
H   -6.342370   -1.685200    0.535357
H   -3.105568   -1.318060   -0.542486
H   -4.362504   -1.812308    0.589553
H   -3.012922   -0.831686    1.155337
H   -8.412563   -2.587265    0.795350
H   -9.614910   -1.878402   -0.307984
H   -9.604263   -1.421304    1.416576
